T42/data/state_estimation/PT_Dx_01_2050_Su_Bd/PT_Dx_01_2050_Su_Bd_t11.csv
bus,vm_pu,va_degree,p_mw,q_mvar
1,0.951653,-0.114340,-13.717427,-5.421571
2,1.000279,-0.000595,32.376419,15.085666
3,0.952878,-0.113085,-0.000005,0.000017
4,0.951470,-0.113377,-0.000007,0.000053
5,0.952795,-0.113711,-0.000003,0.000035
6,0.951374,-0.114001,-0.037587,-0.019252
7,0.949710,-0.113526,-0.078296,-0.040105
8,0.950300,-0.113707,-0.037257,-0.019102
9,0.949560,-0.114563,-0.832433,-0.426525
10,0.949953,-0.114323,-3.653805,-1.871860
11,0.949785,-0.114109,-0.487916,-0.249926
12,0.945006,-0.117848,-0.015029,-0.007608
13,0.949841,-0.113606,-0.057131,-0.022664
14,0.949788,-0.113016,-1.304690,-0.627522
15,0.944847,-0.118481,-0.018463,-0.009500
16,0.952247,-0.113376,-0.007910,-0.004035
17,0.950082,-0.113827,-0.024252,-0.012420
18,0.949568,-0.114337,-0.035818,-0.018355
19,0.944894,-0.117578,-0.092916,-0.047629
20,0.951011,-0.114299,-1.294179,-0.622304
21,0.945561,-0.118055,-0.004828,-0.001908
22,0.950020,-0.112870,-0.006360,-0.002581
23,0.945275,-0.117481,-0.226307,-0.115825
24,0.945447,-0.117024,-0.083170,-0.032861
25,0.946903,-0.117830,-0.010093,-0.003972
26,0.949124,-0.113535,-0.056519,-0.028905
27,0.950778,-0.113814,-0.000034,0.000037
28,0.945014,-0.118608,-0.114607,-0.058760
29,0.950314,-0.114316,-0.076373,-0.039231
30,0.948992,-0.113599,-0.217471,-0.111477
31,0.949615,-0.114396,-0.048571,-0.024835
32,0.952346,-0.113259,-0.159874,-0.081954
33,0.950351,-0.113737,-0.486608,-0.208376
34,0.944418,-0.118022,-0.023600,-0.012094
35,0.944434,-0.117304,-0.077613,-0.039748
36,0.949571,-0.114156,-0.016173,-0.008160
37,0.950506,-0.114127,-0.009042,-0.003546
38,0.945187,-0.117980,-0.057617,-0.029470
39,0.949605,-0.114408,-0.131032,-0.067164
40,0.943817,-0.117479,-0.009168,-0.003636
41,0.944589,-0.118380,-0.028178,-0.011084
42,0.944808,-0.117817,-0.055528,-0.028493
43,0.945348,-0.117151,-0.094754,-0.048396
44,0.945007,-0.117436,-0.088222,-0.045188
45,0.945009,-0.117777,-0.002341,-0.001017
46,0.950087,-0.112993,-0.130840,-0.067117
47,0.944807,-0.117136,-0.304520,-0.155968
48,0.949899,-0.113729,-0.000618,-0.000261
49,0.949550,-0.113899,-0.027689,-0.014167
50,0.949546,-0.114470,-0.001582,-0.000709
51,0.951290,-0.113705,-0.024869,-0.009791
52,0.949676,-0.113735,-0.030699,-0.015604
53,0.945441,-0.117714,-0.573260,-0.293624
54,0.949437,-0.114005,-0.039845,-0.015776
55,0.951148,-0.113652,-0.061884,-0.031617
56,0.950183,-0.113663,-0.053778,-0.027546
57,0.949070,-0.113931,-0.059593,-0.030562
58,0.945020,-0.118114,-0.016451,-0.008357
59,0.944372,-0.117236,-0.046443,-0.018327
60,0.944134,-0.117740,-0.013653,-0.005284
61,0.949126,-0.112952,-1.096804,-0.521075
62,0.951696,-0.113376,-0.016952,-0.008543
63,0.944341,-0.118062,-0.000729,-0.000353
64,0.949973,-0.112733,-0.402571,-0.206290
65,0.950894,-0.113989,-0.641833,-0.288006
66,0.951133,-0.113189,-0.572232,-0.293152
67,0.950982,-0.113892,-0.057710,-0.029602
68,0.945344,-0.117705,-0.176851,-0.090671
69,0.949844,-0.113828,-0.024120,-0.009536
70,0.950001,-0.113529,-0.019345,-0.009960
71,0.945324,-0.117765,-0.037999,-0.019487
72,0.944455,-0.117316,-0.055915,-0.028641
73,0.945895,-0.117352,-0.011306,-0.004482
74,0.944939,-0.118757,-0.012176,-0.006252
75,0.945317,-0.117515,-0.140571,-0.072020
76,0.949931,-0.113339,-0.069394,-0.035520
77,0.950937,-0.113132,-0.039985,-0.020423
78,0.949055,-0.113521,-0.272545,-0.139577
79,0.952054,-0.113879,-0.155797,-0.079759
80,0.945560,-0.117957,-0.000100,-0.000068
81,0.945217,-0.117950,-0.000935,-0.000537
82,0.949607,-0.115243,-0.020152,-0.010348
83,0.949119,-0.114609,-0.067700,-0.034749
84,0.949529,-0.113063,-0.020414,-0.010411
85,0.944793,-0.116786,-0.015264,-0.007772
86,0.951477,-0.113516,-0.031909,-0.012729
87,0.949934,-0.114175,-0.077873,-0.039780
88,0.950782,-0.113931,-0.056485,-0.028891
89,0.950826,-0.113450,-0.339395,-0.173788
90,0.949900,-0.114469,-0.096413,-0.049336
91,0.945196,-0.116950,-0.058844,-0.030186
92,0.944637,-0.117425,-0.041074,-0.021086
93,0.950745,-0.114698,-0.060125,-0.030803
94,0.944697,-0.117314,-0.147897,-0.075713
95,0.952164,-0.113892,-0.269923,-0.138324
96,0.944752,-0.117816,-0.045348,-0.018032
97,0.945094,-0.118623,-0.173090,-0.088847
98,0.944602,-0.118358,-0.069651,-0.027529
99,0.949647,-0.113316,-0.970326,-0.456281
100,0.950245,-0.114276,-0.023897,-0.012287
101,0.949834,-0.113974,-0.102047,-0.040264
102,0.949325,-0.113471,-0.326165,-0.126307
103,0.950211,-0.114484,-0.031777,-0.012603
104,0.944228,-0.118607,-0.174271,-0.068848
105,0.950066,-0.113899,-0.001941,-0.000965
106,0.949621,-0.113405,-0.000048,-0.000007
107,0.950924,-0.113839,-0.000059,0.000054
108,0.950093,-0.113082,-0.000100,0.000112
109,0.949917,-0.113527,0.000036,-0.000037
110,0.945637,-0.116353,0.000016,-0.000011
111,0.944463,-0.118299,-0.000011,0.000033
112,0.950265,-0.114017,-0.000120,0.000042
113,0.949788,-0.113927,0.000018,-0.000035
114,0.945753,-0.117058,0.000108,0.000119
115,0.944235,-0.117262,0.000064,0.000044
116,0.950536,-0.113754,-0.000026,-0.000033
117,0.944756,-0.117527,0.000081,-0.000033
118,0.949655,-0.113634,-0.000006,0.000083
119,0.950448,-0.114558,0.000037,-0.000005
120,0.949978,-0.114503,0.000053,0.000081
121,0.951339,-0.113790,-0.000079,-0.000042
122,0.948738,-0.114363,-0.000046,0.000029
123,0.950868,-0.113974,0.000031,-0.000015
124,0.950115,-0.114126,0.000014,-0.000062
125,0.950394,-0.114234,0.000046,0.000003
126,0.945662,-0.117616,0.000013,0.000090
127,0.949547,-0.114117,0.000019,0.000011
128,0.946321,-0.116796,-0.000011,-0.000027
129,0.944432,-0.117794,0.000076,0.000030
130,0.946428,-0.117020,-0.000079,0.000064
131,0.951555,-0.112991,-0.000010,-0.000055
132,0.945829,-0.117182,0.000111,0.000017
133,0.950950,-0.113434,0.000028,-0.000012
134,0.951487,-0.113257,-0.000002,0.000023
135,0.944517,-0.117697,0.000018,0.000082
136,0.944718,-0.116465,-0.000010,-0.000016
137,0.944666,-0.117790,0.000006,0.000014
138,0.943611,-0.117404,0.000023,-0.000015
139,0.944632,-0.116868,0.000033,0.000009
140,0.948764,-0.114016,-0.000028,-0.000020
141,0.945195,-0.118550,-0.000014,-0.000041
142,0.945432,-0.117505,0.000071,-0.000027
143,0.945973,-0.117559,-0.000031,0.000045
144,0.950899,-0.114823,-0.000067,0.000032
145,0.951851,-0.113409,-0.000073,-0.000105
146,0.950471,-0.114944,-0.000118,-0.000036
147,0.949475,-0.113639,0.000110,0.000066
148,0.950488,-0.114825,0.000025,0.000053
149,0.944457,-0.118324,-0.000023,0.000080
150,0.946339,-0.117273,-0.000079,0.000022
151,0.950495,-0.113648,0.000018,0.000058
152,0.950316,-0.113375,0.000015,0.000008
153,0.949945,-0.113621,-0.000032,-0.000051
154,0.950600,-0.113874,0.000019,0.000021
155,0.945135,-0.118073,0.000009,0.000031
156,0.950054,-0.113739,-0.000062,-0.000010
157,0.951294,-0.112864,-0.000009,0.000077
158,0.950345,-0.113907,0.000070,-0.000001
159,0.944640,-0.117017,-0.000075,0.000038
160,0.951474,-0.112872,0.000033,0.000110
161,0.949764,-0.113306,0.000012,0.000006
162,0.945986,-0.116809,0.000006,-0.000021
163,0.951611,-0.112692,-0.000046,0.000038
164,0.950583,-0.114061,-0.000032,0.000057
165,0.951320,-0.112771,-0.000023,-0.000048
166,0.951327,-0.113992,-0.000020,0.000093
167,0.944316,-0.118094,-0.000040,-0.000019
168,0.948549,-0.113947,-0.000010,-0.000032
169,0.950621,-0.113795,0.000026,-0.000087
170,0.949760,-0.113698,-0.000007,0.000041
171,0.945881,-0.117646,-0.000023,-0.000024
172,0.945295,-0.117679,0.000036,-0.000054
173,0.949983,-0.115038,-0.000041,0.000066
174,0.945523,-0.117218,-0.000081,-0.000004
175,0.944199,-0.117164,-0.000028,0.000079
176,0.950105,-0.114291,0.000059,-0.000044
177,0.944450,-0.117871,0.000085,-0.000074
178,0.944816,-0.117831,0.000043,-0.000023
179,0.951358,-0.113733,0.000005,-0.000029
180,0.951916,-0.113587,0.000014,0.000046
181,0.944866,-0.117932,0.000010,0.000066
182,0.945402,-0.117447,0.000038,-0.000104
183,0.949336,-0.113637,-0.000047,-0.000028
184,0.949324,-0.113932,-0.000062,0.000046
185,0.950240,-0.114363,0.000062,0.000020
186,0.945209,-0.117790,0.000023,-0.000054
187,0.949956,-0.114046,0.000011,-0.000003
188,0.944748,-0.117431,0.000009,-0.000002
189,0.951219,-0.113527,0.000031,0.000030
190,0.945915,-0.117571,0.000013,-0.000003
191,0.951806,-0.114048,0.000041,-0.000008
